Circuit: * C:\Users\ghiya\Elektronika_Daya\Power_Electronics_Exam\BuckConverter.asc

Direct Newton iteration for .op point succeeded.

current_ripple: PP(i(l1))=0.551999 FROM 0.004 TO 0.0045
voltage_ripple: PP(v(out))=0.0639398 FROM 0.004 TO 0.0045
di_calc: di=0.2
dv_calc: dv=0.02


Date: Thu Jun 12 23:44:47 2025
Total elapsed time: 0.098 seconds.

tnom = 27
temp = 27
method = modified trap
totiter = 20717
traniter = 20713
tranpoints = 10258
accept = 8554
rejected = 1704
matrix size = 6
fillins = 0
solver = Normal
Avg thread counts: 1.4/1.7/1.7/1.4
Matrix Compiler1:       9 opcodes  0.1/[0.1]/0.1
Matrix Compiler2: off  [0.1]/0.1/0.1

